-------------------------------------------------------
          Amber 18 PMEMD                              2018
          -------------------------------------------------------

  [-O]verwriting output

File Assignments:

 Here is the input file:

20 ps solute restrained NVT equilibration using Langevin thermostat
&cntrl
  irest     = 0,
  ntx       = 1,
  ig        = -1,
  dt        = 0.002,
  nstlim    = 10000,
  nscm      = 500,
  ntr       = 1,
  restraint_wt  = 1.0,
  restraintmask = '!:WAT & !@H',
  ntb       = 1,
  ntp       = 0,
  ntt       = 3,
  tempi     = 298.0,
  temp0     = 298.0,
  gamma_ln  = 1.0,
  ntf       = 2,
  ntc       = 2,
  cut       = 10.0,
  ntpr      = 500,
  ntxo      = 2,
  ntwr      = 10000,
  ioutfm    = 1,
  ntwx      = 500,
  iwrap     = 1,
&end

Note: ig = -1. Setting random seed to    52076 based on wallclock time in
      microseconds and disabling the synchronization of random numbers
      between tasks to improve performance.

--------------------------------------------------------------------------------
   1.  RESOURCE   USE:
--------------------------------------------------------------------------------

 getting box info from netcdf restart file
 NATOM  =   74705 NTYPES =      18 NBONH =   73329 MBONA  =    1400
 NTHETH =    3162 MTHETA =    1894 NPHIH =    6040 MPHIA  =    6476
 NHPARM =       0 NPARM  =       0 NNB   =  111178 NRES   =   24159
 NBONA  =    1400 NTHETA =    1894 NPHIA =    6476 NUMBND =      86
 NUMANG =     201 NPTRA  =     423 NATYP =      44 NPHB   =       0
 IFBOX  =       2 NMXRS  =      24 IFCAP =       0 NEXTRA =       0
 NCOPY  =       0

     BOX TYPE: TRUNCATED OCTAHEDRON

--------------------------------------------------------------------------------
   2.  CONTROL  DATA  FOR  THE  RUN
--------------------------------------------------------------------------------

default_name

General flags:
     imin    =       0, nmropt  =       0

Nature and format of input:
     ntx     =       1, irest   =       0, ntrx    =       1

Nature and format of output:
     ntxo    =       2, ntpr    =     500, ntrx    =       1, ntwr    =   10000
     iwrap   =       1, ntwx    =     500, ntwv    =       0, ntwe    =       0
     ioutfm  =       1, ntwprt  =       0, idecomp =       0, rbornstat=      0

Potential function:
     ntf     =       2, ntb     =       1, igb     =       0, nsnb    =      25
     ipol    =       0, gbsa    =       0, iesp    =       0
     dielc   =   1.00000, cut     =  10.00000, intdiel =   1.00000

Frozen or restrained atoms:
     ibelly  =       0, ntr     =       1
     restraint_wt =   1.00000

Molecular dynamics:
     nstlim  =     10000, nscm    =         0, nrespa  =         1
     t       =   0.00000, dt      =   0.00200, vlimit  =  20.00000

Langevin dynamics temperature regulation:
     ig      =   52076
     temp0   = 298.00000, tempi   = 298.00000, gamma_ln=   1.00000

SHAKE:
     ntc     =       2, jfastw  =       0
     tol     =   0.00001

Ewald parameters:
     verbose =       0, ew_type =       0, nbflag  =       1, use_pme =       1
     vdwmeth =       1, eedmeth =       1, netfrc  =       1
     Box X =  102.016   Box Y =  102.016   Box Z =  102.016
     Alpha =  109.471   Beta  =  109.471   Gamma =  109.471
     NFFT1 =  108       NFFT2 =  108       NFFT3 =  108
     Cutoff=   10.000   Tol   =0.100E-04
     Ewald Coefficient =  0.27511
     Interpolation order =    4

    LOADING THE CONSTRAINED ATOMS AS GROUPS

   5.  REFERENCE ATOM COORDINATES

  default_name
     Mask !:WAT & !@H; matches  2600 atoms

--------------------------------------------------------------------------------
   3.  ATOMIC COORDINATES AND VELOCITIES
--------------------------------------------------------------------------------

default_name
 begin time read from input coords =     0.000 ps

 Number of triangulated 3-point waters found:    23981

     Sum of charges from parm topology file =  -0.00002624
     Forcing neutrality...

--------------------------------------------------------------------------------
   4.  RESULTS
 NSTEP =        0   TIME(PS) =       0.000  TEMP(K) =   443.38  PRESS =     0.0
 Etot   =   -320660.5562  EKtot   =     66426.7170  EPtot      =   -387087.2733
 BOND   =       141.1180  ANGLE   =       537.0907  DIHED      =     -1600.8903
 1-4 NB =       571.1305  1-4 EEL =     10636.1160  VDWAALS    =     81596.3314
 EELEC  =   -478968.1695  EHBOND  =         0.0000  RESTRAINT  =         0.0000
 Ewald error estimate:   0.1683E-03
 ------------------------------------------------------------------------------

      A V E R A G E S   O V E R      20 S T E P S

 NSTEP =    10000   TIME(PS) =      20.000  TEMP(K) =   293.35  PRESS =     0.0
 Etot   =   -228969.2647  EKtot   =     43949.5461  EPtot      =   -272918.8108
 BOND   =       560.3463  ANGLE   =      1546.8157  DIHED      =     -1399.2585
 1-4 NB =       655.4373  1-4 EEL =     10617.0715  VDWAALS    =     47251.4310
 EELEC  =   -332366.1290  EHBOND  =         0.0000  RESTRAINT  =       215.4749
 EAMBER (non-restraint)  =   -273134.2857
 Ewald error estimate:   0.4757E-04
 ------------------------------------------------------------------------------

      R M S  F L U C T U A T I O N S

 NSTEP =    10000   TIME(PS) =      20.000  TEMP(K) =    12.67  PRESS =     0.0
 Etot   =      5220.8223  EKtot   =      1898.9384  EPtot      =      3340.1509
 BOND   =        24.7692  ANGLE   =        62.9010  DIHED      =        13.6062
 1-4 NB =        11.2773  1-4 EEL =        33.9412  VDWAALS    =      1517.6694
 EELEC  =      4775.3882  EHBOND  =         0.0000  RESTRAINT  =        16.2919
 EAMBER (non-restraint)  =      3323.8590
 Ewald error estimate:   0.2550E-04
 ------------------------------------------------------------------------------
