-------------------------------------------------------
          Amber 18 PMEMD                              2018
          -------------------------------------------------------

  [-O]verwriting output

File Assignments:

 Here is the input file:

1 ns solute restrained NPT equilibration using Langevin thermostat and MC baros
&cntrl
  irest     = 1,
  ntx       = 5,
  ig        = -1,
  dt        = 0.002,
  nstlim    = 500000,
  nscm      = 500,
  ntr       = 1,
  restraint_wt  = 1.0,
  restraintmask = '!:WAT & !@H',
  ntb       = 2,
  ntp       = 1,
  barostat  = 2,
  pres0     = 1.0,
  mcbarint  = 100,
  comp      = 44.6,
  taup      = 1.0,
  ntt       = 3,
  temp0     = 298.0,
  gamma_ln  = 1.0,
  ntf       = 2,
  ntc       = 2,
  cut       = 10.0,
  ntpr      = 500,
  ntxo      = 2,
  ntwr      = 500000,
  ioutfm    = 1,
  ntwx      = 500,
  iwrap     = 1,
&end

Note: ig = -1. Setting random seed to   806246 based on wallclock time in
      microseconds and disabling the synchronization of random numbers
      between tasks to improve performance.

--------------------------------------------------------------------------------
   1.  RESOURCE   USE:
--------------------------------------------------------------------------------

 getting box info from netcdf restart file
 NATOM  =   74705 NTYPES =      18 NBONH =   73329 MBONA  =    1400
 NTHETH =    3162 MTHETA =    1894 NPHIH =    6040 MPHIA  =    6476
 NHPARM =       0 NPARM  =       0 NNB   =  111178 NRES   =   24159
 NBONA  =    1400 NTHETA =    1894 NPHIA =    6476 NUMBND =      86
 NUMANG =     201 NPTRA  =     423 NATYP =      44 NPHB   =       0
 IFBOX  =       2 NMXRS  =      24 IFCAP =       0 NEXTRA =       0
 NCOPY  =       0

     BOX TYPE: TRUNCATED OCTAHEDRON

--------------------------------------------------------------------------------
   2.  CONTROL  DATA  FOR  THE  RUN
--------------------------------------------------------------------------------

default_name

General flags:
     imin    =       0, nmropt  =       0

Nature and format of input:
     ntx     =       5, irest   =       1, ntrx    =       1

Nature and format of output:
     ntxo    =       2, ntpr    =     500, ntrx    =       1, ntwr    =  500000
     iwrap   =       1, ntwx    =     500, ntwv    =       0, ntwe    =       0
     ioutfm  =       1, ntwprt  =       0, idecomp =       0, rbornstat=      0

Potential function:
     ntf     =       2, ntb     =       2, igb     =       0, nsnb    =      25
     ipol    =       0, gbsa    =       0, iesp    =       0
     dielc   =   1.00000, cut     =  10.00000, intdiel =   1.00000

Frozen or restrained atoms:
     ibelly  =       0, ntr     =       1
     restraint_wt =   1.00000

Molecular dynamics:
     nstlim  =    500000, nscm    =         0, nrespa  =         1
     t       =   0.00000, dt      =   0.00200, vlimit  =  20.00000

Langevin dynamics temperature regulation:
     ig      =  806246
     temp0   = 298.00000, tempi   =   0.00000, gamma_ln=   1.00000

Pressure regulation:
     ntp     =       1
     pres0   =   1.00000, comp    =  44.60000, taup    =   1.00000
     Monte-Carlo Barostat:
     mcbarint  =     100

SHAKE:
     ntc     =       2, jfastw  =       0
     tol     =   0.00001

Ewald parameters:
     verbose =       0, ew_type =       0, nbflag  =       1, use_pme =       1
     vdwmeth =       1, eedmeth =       1, netfrc  =       1
     Box X =  102.016   Box Y =  102.016   Box Z =  102.016
     Alpha =  109.471   Beta  =  109.471   Gamma =  109.471
     NFFT1 =  108       NFFT2 =  108       NFFT3 =  108
     Cutoff=   10.000   Tol   =0.100E-04
     Ewald Coefficient =  0.27511
     Interpolation order =    4

    LOADING THE CONSTRAINED ATOMS AS GROUPS

   5.  REFERENCE ATOM COORDINATES

  default_name
     Mask !:WAT & !@H; matches  2600 atoms

--------------------------------------------------------------------------------
   3.  ATOMIC COORDINATES AND VELOCITIES
--------------------------------------------------------------------------------

default_name
 begin time read from input coords =    20.000 ps

 Number of triangulated 3-point waters found:    23981

     Sum of charges from parm topology file =  -0.00002624
     Forcing neutrality...

--------------------------------------------------------------------------------
   4.  RESULTS
 NSTEP =      500   TIME(PS) =      21.000  TEMP(K) =   296.97  PRESS =     0.0
 Etot   =   -227190.5033  EKtot   =     44492.5535  EPtot      =   -271683.0568
 BOND   =       567.6724  ANGLE   =      1498.4687  DIHED      =     -1354.0409
 1-4 NB =       635.2366  1-4 EEL =     10640.3491  VDWAALS    =     47173.9729
 EELEC  =   -331071.7235  EHBOND  =         0.0000  RESTRAINT  =       227.0079
 EAMBER (non-restraint)  =   -271910.0647
 EKCMT  =         0.0000  VIRIAL  =         0.0000  VOLUME     =    808614.1228
                                                    Density    =         0.9278
 Ewald error estimate:   0.4876E-04
 ------------------------------------------------------------------------------

      A V E R A G E S   O V E R    1000 S T E P S

 NSTEP =   500000   TIME(PS) =    1020.000  TEMP(K) =   298.04  PRESS =     0.0
 Etot   =   -231392.3341  EKtot   =     44651.7631  EPtot      =   -276044.0972
 BOND   =       562.0621  ANGLE   =      1558.5860  DIHED      =     -1391.2464
 1-4 NB =       659.8766  1-4 EEL =     10630.4339  VDWAALS    =     49042.8635
 EELEC  =   -337384.7613  EHBOND  =         0.0000  RESTRAINT  =       278.0882
 EAMBER (non-restraint)  =   -276322.1854
 EKCMT  =         0.0000  VIRIAL  =         0.0000  VOLUME     =    744540.5520
                                                    Density    =         1.0076
 Ewald error estimate:   0.4657E-04
 ------------------------------------------------------------------------------

      R M S  F L U C T U A T I O N S

 NSTEP =   500000   TIME(PS) =    1020.000  TEMP(K) =     1.12  PRESS =     0.0
 Etot   =       409.7089  EKtot   =       167.3697  EPtot      =       353.5480
 BOND   =        20.1750  ANGLE   =        28.9609  DIHED      =        14.8569
 1-4 NB =        10.4871  1-4 EEL =        31.6208  VDWAALS    =       302.4303
 EELEC  =       556.4360  EHBOND  =         0.0000  RESTRAINT  =         9.9946
 EAMBER (non-restraint)  =       343.5534
 EKCMT  =         0.0000  VIRIAL  =         0.0000  VOLUME     =      3452.6286
                                                    Density    =         0.0044
 Ewald error estimate:   0.3412E-04
 ------------------------------------------------------------------------------
